Version 4
SHEET 1 880 1000
WIRE 192 80 192 48
WIRE 192 192 192 160
WIRE 464 192 192 192
WIRE 80 208 32 208
WIRE 192 208 192 192
WIRE 192 208 144 208
WIRE 80 304 32 304
WIRE 192 304 192 208
WIRE 192 304 144 304
WIRE 80 400 32 400
WIRE 192 400 192 304
WIRE 192 400 144 400
WIRE -240 704 -240 656
WIRE -64 704 -64 656
WIRE 112 704 112 656
WIRE 272 704 272 656
WIRE -240 816 -240 784
WIRE -64 816 -64 784
WIRE 112 816 112 784
WIRE 272 816 272 784
FLAG 192 48 VCC
FLAG -240 656 VCC
FLAG 464 192 OUT
FLAG -64 656 S1
FLAG 32 208 S1
FLAG 32 304 S2
FLAG 112 656 S2
FLAG 272 656 S3
FLAG 32 400 S3
FLAG -240 816 0
FLAG -64 816 0
FLAG 112 816 0
FLAG 272 816 0
SYMBOL res 176 64 R0
SYMATTR InstName R1
SYMATTR Value 1Meg
SYMATTR SpiceLine tol=1 pwr=0.1
SYMBOL diode 144 192 R90
WINDOW 0 0 32 VBottom 2
WINDOW 3 32 32 VTop 2
SYMATTR InstName D1
SYMATTR Value 1N4148
SYMBOL diode 144 288 R90
WINDOW 0 0 32 VBottom 2
WINDOW 3 32 32 VTop 2
SYMATTR InstName D2
SYMATTR Value 1N4148
SYMBOL diode 144 384 R90
WINDOW 0 0 32 VBottom 2
WINDOW 3 32 32 VTop 2
SYMATTR InstName D3
SYMATTR Value 1N4148
SYMBOL voltage -64 688 R0
WINDOW 3 -228 204 Left 2
WINDOW 123 0 0 Left 0
WINDOW 39 0 0 Left 0
SYMATTR InstName V1
SYMATTR Value PULSE(3.3 0 1 0 0 1)
SYMBOL voltage 112 688 R0
WINDOW 3 -401 239 Left 2
WINDOW 123 0 0 Left 0
WINDOW 39 0 0 Left 0
SYMATTR InstName V2
SYMATTR Value PULSE(3.3 0 3 0 0 1)
SYMBOL voltage 272 688 R0
WINDOW 3 -563 273 Left 2
WINDOW 123 0 0 Left 0
WINDOW 39 0 0 Left 0
SYMATTR InstName V3
SYMATTR Value PULSE(3.3 0 5 0 0 1)
SYMBOL voltage -240 688 R0
WINDOW 123 0 0 Left 0
WINDOW 39 0 0 Left 0
SYMATTR InstName V4
SYMATTR Value 3.3
TEXT -294 982 Left 2 !.tran 9
