Version 4
SHEET 1 1156 680
WIRE 176 -352 128 -352
WIRE 224 -352 176 -352
WIRE 608 -352 320 -352
WIRE 608 -336 608 -352
WIRE 176 -256 176 -272
WIRE 240 -256 240 -304
WIRE 240 -256 176 -256
WIRE 240 -224 240 -256
WIRE 608 -208 608 -256
WIRE 672 -208 608 -208
WIRE 720 -208 672 -208
WIRE 608 -160 608 -208
WIRE -448 -144 -448 -176
WIRE -80 -144 -80 -176
WIRE 400 -144 288 -144
WIRE 448 -144 400 -144
WIRE 672 -144 672 -208
WIRE 400 -80 400 -144
WIRE -448 -32 -448 -64
WIRE -80 -32 -80 -64
WIRE 240 64 240 -128
WIRE 400 64 400 0
WIRE 608 64 608 -80
WIRE 672 64 672 -80
FLAG 240 64 0
FLAG -80 -32 0
FLAG -448 -176 UC
FLAG 448 -144 UC
FLAG 608 64 0
FLAG -448 -32 0
FLAG 128 -352 PILE
FLAG -80 -176 PILE
FLAG 400 64 0
FLAG 672 64 0
FLAG 720 -208 measure
SYMBOL voltage -80 -160 R0
WINDOW 3 46 57 Left 2
WINDOW 123 0 0 Left 0
WINDOW 39 0 0 Left 0
SYMATTR Value 4.2
SYMATTR InstName V1
SYMBOL pmos 320 -304 M270
SYMATTR InstName M1
SYMATTR Value FDC638P
SYMBOL nmos 288 -224 M0
WINDOW 3 -137 42 Left 2
SYMATTR Value IRLML6244
SYMATTR InstName M2
SYMBOL res 160 -368 R0
WINDOW 3 -78 56 Left 2
SYMATTR Value 1Meg
SYMATTR InstName R1
SYMATTR SpiceLine tol=1 pwr=0.1
SYMBOL res 592 -176 R0
WINDOW 0 -77 46 Left 2
WINDOW 3 -78 78 Left 2
SYMATTR InstName R2
SYMATTR Value 1Meg
SYMATTR SpiceLine tol=1 pwr=0.1
SYMBOL voltage -448 -160 R0
WINDOW 3 -284 155 Left 2
WINDOW 123 0 0 Left 0
WINDOW 39 0 0 Left 0
SYMATTR Value PULSE(0 3.1 2 0 0 1)
SYMATTR InstName V3
SYMBOL res 592 -352 R0
WINDOW 3 33 82 Left 2
SYMATTR Value 1Meg
SYMATTR InstName R3
SYMATTR SpiceLine tol=1 pwr=0.1
SYMBOL res 384 -96 R0
SYMATTR InstName R5
SYMATTR Value 100K
SYMATTR SpiceLine tol=1 pwr=0.1
SYMBOL cap 656 -144 R0
SYMATTR InstName C1
SYMATTR Value 0.01µ
SYMATTR SpiceLine V=10 Irms=0 Rser=0 Lser=0 mfg="Murata" pn="GCM033R71A103KA03" type="X7R"
TEXT -392 48 Left 2 !.tran 10
