Version 4
SHEET 1 1156 680
WIRE 176 -352 128 -352
WIRE 224 -352 176 -352
WIRE 480 -352 320 -352
WIRE 816 -352 480 -352
WIRE 176 -256 176 -272
WIRE 240 -256 240 -304
WIRE 240 -256 176 -256
WIRE 816 -240 816 -352
WIRE 240 -224 240 -256
WIRE 96 -192 32 -192
WIRE 176 -192 176 -256
WIRE 176 -192 160 -192
WIRE -448 -144 -448 -176
WIRE -176 -144 -176 -176
WIRE -80 -144 -80 -176
WIRE 448 -144 288 -144
WIRE 480 -144 480 -272
WIRE 480 -144 448 -144
WIRE 560 -64 496 -64
WIRE 624 -64 560 -64
WIRE -448 -32 -448 -64
WIRE -176 -32 -176 -64
WIRE -80 -32 -80 -64
WIRE 240 64 240 -128
WIRE 448 64 448 -48
WIRE 560 64 560 16
WIRE 816 64 816 -160
FLAG 240 64 0
FLAG -80 -32 0
FLAG -176 -32 0
FLAG 816 -352 VCC
FLAG -448 -176 UC
FLAG 624 -64 UC
FLAG 816 64 0
FLAG 32 -192 EN
FLAG -176 -176 EN
FLAG -448 -32 0
FLAG 448 64 0
FLAG 128 -352 PILE
FLAG -80 -176 PILE
FLAG 560 64 0
SYMBOL voltage -80 -160 R0
WINDOW 3 46 57 Left 2
WINDOW 123 0 0 Left 0
WINDOW 39 0 0 Left 0
SYMATTR Value 4.2
SYMATTR InstName V1
SYMBOL voltage -176 -160 R0
WINDOW 3 -102 163 Left 2
WINDOW 123 0 0 Left 0
WINDOW 39 0 0 Left 0
SYMATTR Value PULSE(4.2 0 2 0 0 0.1)
SYMATTR InstName V2
SYMBOL pmos 320 -304 M270
SYMATTR InstName M1
SYMATTR Value FDC638P
SYMBOL nmos 288 -224 M0
WINDOW 3 -137 42 Left 2
SYMATTR Value IRLML6244
SYMATTR InstName M2
SYMBOL res 160 -368 R0
WINDOW 3 -78 56 Left 2
SYMATTR Value 2Meg
SYMATTR InstName R1
SYMATTR SpiceLine tol=1 pwr=0.1
SYMBOL res 800 -256 R0
SYMATTR InstName R2
SYMATTR Value 100K
SYMATTR SpiceLine tol=1 pwr=0.1
SYMBOL voltage -448 -160 R0
WINDOW 3 -284 155 Left 2
WINDOW 123 0 0 Left 0
WINDOW 39 0 0 Left 0
SYMATTR Value PULSE(0 3.3 6 0 0 0.1)
SYMATTR InstName V3
SYMBOL res 464 -368 R0
WINDOW 3 33 82 Left 2
SYMATTR Value 2Meg
SYMATTR InstName R3
SYMATTR SpiceLine tol=1 pwr=0.1
SYMBOL nmos 496 -144 M0
SYMATTR InstName M3
SYMATTR Value BSS123
SYMBOL res 544 -80 R0
SYMATTR InstName R5
SYMATTR Value 1Meg
SYMATTR SpiceLine tol=1 pwr=0.1
SYMBOL diode 160 -208 R90
WINDOW 0 0 32 VBottom 2
WINDOW 3 32 32 VTop 2
SYMATTR InstName D1
SYMATTR Value 1N4148
TEXT -392 48 Left 2 !.tran 10
