Version 4
SHEET 1 1108 1000
WIRE 352 144 352 112
WIRE 272 176 176 176
WIRE 128 192 0 192
WIRE -368 224 -368 176
WIRE 0 224 0 192
WIRE 176 224 176 176
WIRE 128 240 128 192
WIRE 272 256 272 176
WIRE 352 256 352 224
WIRE 352 256 272 256
WIRE 560 256 352 256
WIRE 352 304 352 256
WIRE -368 336 -368 304
WIRE 0 400 0 304
WIRE 128 400 128 288
WIRE 128 400 0 400
WIRE 176 416 176 304
WIRE 352 416 352 368
FLAG 352 112 VCC
FLAG -368 176 VCC
FLAG 560 256 OUT
FLAG -368 336 0
FLAG 352 416 0
FLAG 176 416 0
SYMBOL res 336 128 R0
WINDOW 3 77 39 Left 2
SYMATTR InstName R1
SYMATTR Value 1Meg
SYMATTR SpiceLine tol=1 pwr=0.1
SYMBOL voltage -368 208 R0
WINDOW 123 0 0 Left 0
WINDOW 39 0 0 Left 0
SYMATTR InstName V4
SYMATTR Value 4.2
SYMBOL sw 176 208 R0
SYMATTR InstName S1
SYMBOL voltage 0 320 R180
WINDOW 0 24 96 Left 2
WINDOW 3 -258 -181 Left 2
WINDOW 123 0 0 Left 0
WINDOW 39 0 0 Left 0
SYMATTR InstName V5
SYMATTR Value PULSE(0 4.2 0.1 0 0 0 0.001 10)
SYMBOL cap 336 304 R0
SYMATTR InstName C1
SYMATTR Value 0.1µF
SYMATTR SpiceLine V=6.3 Irms=2.55 Rser=0.0464862 Lser=0
TEXT -232 504 Left 2 !.tran 2
TEXT -48 544 Left 2 !.model sw SW(Ron=0.1 Roff=1GIG Vt=2)
