Version 4
SHEET 1 1156 680
WIRE 480 -352 128 -352
WIRE 816 -352 480 -352
WIRE -448 -144 -448 -176
WIRE -80 -144 -80 -176
WIRE 448 -144 288 -144
WIRE 480 -144 480 -272
WIRE 480 -144 448 -144
WIRE 624 -64 496 -64
WIRE -448 -32 -448 -64
WIRE -80 -32 -80 -64
WIRE 448 64 448 -48
FLAG -80 -32 0
FLAG 816 -352 VCC
FLAG -448 -176 RTC
FLAG 624 -64 RTC
FLAG -448 -32 0
FLAG 448 64 0
FLAG 128 -352 PILE
FLAG -80 -176 PILE
FLAG 288 -144 OUT
SYMBOL voltage -80 -160 R0
WINDOW 3 46 57 Left 2
WINDOW 123 0 0 Left 0
WINDOW 39 0 0 Left 0
SYMATTR Value 4.2
SYMATTR InstName V1
SYMBOL voltage -448 -160 R0
WINDOW 3 -284 155 Left 2
WINDOW 123 0 0 Left 0
WINDOW 39 0 0 Left 0
SYMATTR Value PULSE(4.2 0 6 0 0 0.1)
SYMATTR InstName V3
SYMBOL res 464 -368 R0
WINDOW 3 33 82 Left 2
SYMATTR Value 2Meg
SYMATTR InstName R3
SYMATTR SpiceLine tol=1 pwr=0.1
SYMBOL nmos 496 -144 M0
SYMATTR InstName M3
SYMATTR Value BSS123
TEXT -392 48 Left 2 !.tran 10
